# Basic Mode
# 

! HFLD aug-cc-pVDZ aug-cc-pVDZ/C RIJK verytightscf TightPNO 
%maxcore 6000
%scf maxiter 999 end
%mdci TCutPairs 0 TCutPNO 1e-8 LocMaxIter 10000 LocMaxIterLED 1000  end
%basis auxjk "autoaux" end

* xyz 0 1
  C(1)	1.0722927759025813	0.023532749059554024	0.06496117442333478
  H(1)	2.1644922039195347	0.023533744370843532	0.06496123360074935
  H(1)	0.7082293622149687	-0.9808567404479402	0.29202762888667216
  H(1)	0.7082255337353822	0.3290810642317945	-0.9183977940289365
  H(1)	0.7082244172190862	0.7223721344008142	0.8212527703064877
*


